42
Model[142]: PATH=Calculation 3:Standard;E(RPBE1PBE)=-1069.12007932 A.U.;Energy=-1069.1201;KE==PE=-6.333142430064D+03;NFock==Conv=0.34D-08;PATH=Calculation 3:Standard
O       2.37153      3.19658     -0.21213
N      -2.26132      0.99859      0.16247
C      -2.30848     -1.33104     -0.06300
C      -3.69716     -0.75480     -0.05572
C      -1.45117     -0.07632      0.05120
C      -3.61163      0.62547      0.07197
C      -2.01637     -2.07498     -1.36849
C      -2.08094     -2.24936      1.14268
C      -4.92811     -1.36618     -0.14969
C      -0.07314     -0.13751      0.03736
C      -4.73656      1.43048      0.09450
C      -1.84836      2.35691      0.41325
C      -6.07530     -0.57639     -0.12138
C      -5.97425      0.80247     -0.00286
C       0.84082      0.91122     -0.03136
C       2.22589      0.83001     -0.04552
C       2.95511      2.11685     -0.15105
C       2.94252     -0.38274      0.03717
C       4.40676      2.01830     -0.17330
C       4.30188     -0.38030      0.01345
C       5.04607      0.83192     -0.09406
H      -0.98974     -2.44543     -1.38461
H      -2.16290     -1.42548     -2.23300
H      -2.68944     -2.92971     -1.46314
H      -1.05577     -2.62412      1.15955
H      -2.75612     -3.10559      1.08300
H      -2.27452     -1.72503      2.07996
H      -5.00621     -2.44365     -0.24653
H       0.31861     -1.14877      0.03858
H      -4.67528      2.50842      0.17268
H      -2.69864      2.92145      0.78911
H      -1.47495      2.84045     -0.49289
H      -1.06323      2.37244      1.16997
H      -7.05148     -1.03970     -0.19730
H      -6.87359      1.40681      0.01035
H       0.49254      1.93367     -0.11612
H       2.43302     -1.33423      0.12143
H       4.95411      2.94961     -0.25458
N       5.01181     -1.63874      0.09865
H       6.12644      0.76704     -0.10913
O       6.22828     -1.60185      0.07518
O       4.36124     -2.66487      0.18869
