42
Model[136]: PATH=Calculation 3:Standard;E(RPBE1PBE)=-1069.14299526 A.U.;Energy=-1069.143;KE==PE=-6.605621259890D+03;NFock==Conv=0.86D-08;PATH=Calculation 3:Standard
O      -0.17065     -0.40567      0.34829
O       5.88641     -1.56279     -0.19372
O       5.93950      0.58650     -0.15225
N      -2.03631      0.65615      1.22079
N       5.35046     -0.47550     -0.12368
C      -1.79272      0.68897     -1.12191
C      -1.00491      0.78611      0.23153
C      -2.95028     -0.18004     -0.69778
C      -3.05203     -0.13513      0.69212
C      -2.33312      2.06482     -1.52474
C      -0.94403      0.11951     -2.24554
C      -0.20372      2.03358      0.39886
C      -1.67718      0.56350      2.61159
C      -3.86071     -0.89531     -1.44084
C      -4.06039     -0.80809      1.36033
C       1.15790     -0.37924      0.22876
C       1.12664      2.05087      0.35746
C       1.87884      0.82447      0.20793
C      -4.88683     -1.57672     -0.78409
C      -4.97947     -1.52656      0.59774
C       1.81876     -1.60307      0.15742
C       3.25899      0.78083      0.09341
C       3.90008     -0.44204      0.00357
C       3.19278     -1.63608      0.03919
H      -2.90402      2.52003     -0.71291
H      -3.00044      1.94942     -2.38067
H      -1.52347      2.74045     -1.81225
H      -0.05799      0.73821     -2.41337
H      -1.51949      0.11098     -3.17366
H      -0.62482     -0.90011     -2.03357
H      -0.77560      2.94197      0.53693
H      -1.33960     -0.44247      2.89034
H      -0.87428      1.27092      2.82299
H      -2.53388      0.83151      3.23245
H      -3.78130     -0.93646     -2.52225
H      -4.13393     -0.79084      2.44092
H       1.67182      2.98370      0.45512
H      -5.60795     -2.14953     -1.35464
H      -5.77515     -2.06445      1.10083
H       1.23430     -2.51409      0.18727
H       3.84344      1.69199      0.07837
H       3.72965     -2.57234     -0.03031
