42
Model[186]: PATH=Calculation 3:Standard;E(RPBE1PBE)=-1069.12493762 A.U.;Energy=-1069.1249;KE==PE=-6.338407029122D+03;NFock==Conv=0.81D-08;PATH=Calculation 3:Standard
O      -1.76959      2.75096      0.00130
O      -6.67216     -0.99415     -0.00039
O      -5.11738     -2.48152     -0.00057
N       2.61303      1.19747     -0.00064
N      -5.50033     -1.32504     -0.00038
C       2.11979     -1.08901      0.00030
C       1.57499      0.33389     -0.00033
C       3.60726     -0.83827      0.00024
C       3.84237      0.53132     -0.00039
C       1.71106     -1.84942      1.26727
C       1.71129     -1.85069     -1.26598
C       0.27106      0.78639     -0.00048
C       2.45604      2.63132     -0.00090
C       4.66488     -1.72090      0.00066
C       5.12281      1.05571     -0.00072
C      -2.58211      1.82285      0.00066
C      -0.85788     -0.02447     -0.00028
C      -2.18633      0.39750      0.00010
C       5.96313     -1.21568      0.00040
C       6.18247      0.15481     -0.00029
C      -4.01241      2.07713      0.00047
C      -3.18724     -0.60073     -0.00016
C      -4.50819     -0.27372     -0.00011
C      -4.92958      1.08476      0.00016
H       1.99859     -1.29720      2.16344
H       2.21519     -2.81786      1.28748
H       0.63575     -2.02300      1.30360
H       0.63607     -2.02485     -1.30210
H       2.21586     -2.81891     -1.28538
H       1.99850     -1.29912     -2.16266
H       0.08193      1.85160     -0.00070
H       1.90646      2.95517     -0.88745
H       1.90382      2.95507      0.88403
H       3.43492      3.10244      0.00065
H       4.49410     -2.79204      0.00117
H       5.31089      2.12178     -0.00134
H      -0.72232     -1.10193     -0.00060
H       6.80648     -1.89544      0.00072
H       7.19715      0.53512     -0.00053
H      -4.30995      3.11887      0.00071
H      -2.90792     -1.64815     -0.00044
H      -5.99189      1.29250      0.00012
